s33.raw
0,   100.00, 33, 0, 1, 60.00     / PSS(R)E 33 RAW created by rawd33  TUE, AUG 16 2022   7:04


     1,'POI         ', 345.0000,3,  99, 999, 999,1.00000,   0.0000,1.05000,0.90000,1.05000,0.90000
     2,'HGSU        ', 345.0000,1,  99, 999, 999,1.00000,   0.0523,1.05000,0.90000,1.05000,0.90000
     3,'LGSU1       ',  34.5000,1,  99, 999, 999,0.99500,   6.9801,1.05000,0.90000,1.05000,0.90000
     4,'C1          ',  34.5000,1,  99, 999, 999,0.99619,   7.0896,1.05000,0.90000,1.05000,0.90000
    15,'GEN1        ',   0.6000,2,  99, 999, 999,0.99964,  10.1117,1.05000,0.90000,1.05000,0.90000
    16,'BESS        ',   0.6000,2,  99, 999, 999,0.99500,   6.9801,1.05000,0.90000,1.05000,0.90000
    32,'T1          ',  13.7998,1,  99, 999, 999,0.99883,   3.4967,1.05000,0.95000,1.05000,0.95000
0 / END OF BUS DATA, BEGIN LOAD DATA
0 / END OF LOAD DATA, BEGIN FIXED SHUNT DATA
0 / END OF FIXED SHUNT DATA, BEGIN GENERATOR DATA
     1,'1 ',  -200.970,    36.420,   999.000,  -999.000,1.00000,     0,   999.000, 0.00000E+0, 1.00000E-1, 0.00000E+0, 0.00000E+0,1.00000,1,  100.0,   999.000,     0.000, 999,1.0000
    15,'1 ',   203.000,    -1.571,    65.737,   -65.737,1.00000,     2,   216.820, 0.00000E+0, 9.99900E+3, 0.00000E+0, 0.00000E+0,1.00000,1,   50.0,   205.000,     0.000, 999,1.0000,    ,      ,    ,      ,    ,      ,1, 1.0000
    16,'1 ',     0.000,    -1.714,    86.750,   -86.750,1.00000,     2,   222.600, 0.00000E+0, 9.99900E+3, 0.00000E+0, 0.00000E+0,1.00000,1,   50.0,   205.000,  -218.400, 999,1.0000
0 / END OF GENERATOR DATA, BEGIN BRANCH DATA
     1,     2,'1 ', 8.00000E-5, 4.40000E-4,   0.00429,  430.00,  590.00,  430.00,  0.00000,  0.00000,  0.00000,  0.00000,1,2,   0.00, 999,1.0000
     3,     4,'1 ', 6.40000E-4, 9.00000E-4,   0.00588,  312.50,  312.50,  312.50,  0.00000,  0.00000,  0.00000,  0.00000,1,2,   1.00, 999,1.0000
0 / END OF BRANCH DATA, BEGIN TRANSFORMER DATA
     2,     3,    32,'1 ',2,2,1, 0.00000E+0, 0.00000E+0,2,'            ',1,   1,1.0000,   0,1.0000,   0,1.0000,   0,1.0000,'            '
 2.30000E-3, 8.49000E-2,   142.00, 0.00000E+0, 0.00000E+0,   168.00, 0.00000E+0, 0.00000E+0,   168.00,0.99882,   3.4967
342.844, 345.000,   0.000,   279.30,   279.30,   279.30, 1,      3,379.5000,310.5000, 1.01000, 0.99000,  33, 0, 0.00000, 0.00000,  0.000
34.5000,  34.500,   0.000,   279.30,   279.30,   279.30, 0,      0, 1.10000, 0.90000, 1.10000, 0.90000,  33, 0, 0.00000, 0.00000,  0.000
13.8000,  13.800,   0.000,    10.00,    10.00,    10.00, 0,      0, 1.10000, 0.90000, 1.10000, 0.90000,  33, 0, 0.00000, 0.00000,  0.000
     3,    16,     0,'1 ',2,2,1, 0.00000E+0, 0.00000E+0,2,'            ',1, 999,1.0000,   0,1.0000,   0,1.0000,   0,1.0000,'            '
 5.97000E-3, 5.97000E-2,   231.00
34.5000,  34.500,   0.000,    68.20,    68.20,    68.20, 0,     16,36.22500,32.77500, 1.02000, 1.00000,   5, 0, 0.00000, 0.00000,  0.000
0.60000,   0.600
     4,    15,     0,'1 ',2,2,1, 0.00000E+0, 0.00000E+0,2,'            ',1, 999,1.0000,   0,1.0000,   0,1.0000,   0,1.0000,'            '
 5.97000E-3, 5.97000E-2,   231.00
34.5000,  34.500,   0.000,   236.80,   236.80,   236.80, 0,     15,36.22500,32.77500, 1.02000, 1.00000,   5, 0, 0.00000, 0.00000,  0.000
0.60000,   0.600
0 / END OF TRANSFORMER DATA, BEGIN AREA DATA
  99,     1,     0.000,    10.000,'AREA1       '
0 / END OF AREA DATA, BEGIN TWO-TERMINAL DC DATA
0 / END OF TWO-TERMINAL DC DATA, BEGIN VSC DC LINE DATA
0 / END OF VSC DC LINE DATA, BEGIN IMPEDANCE CORRECTION DATA
0 / END OF IMPEDANCE CORRECTION DATA, BEGIN MULTI-TERMINAL DC DATA
0 / END OF MULTI-TERMINAL DC DATA, BEGIN MULTI-SECTION LINE DATA
0 / END OF MULTI-SECTION LINE DATA, BEGIN ZONE DATA
 999,'ZONE1       '
0 / END OF ZONE DATA, BEGIN INTER-AREA TRANSFER DATA
0 / END OF INTER-AREA TRANSFER DATA, BEGIN OWNER DATA
0 / END OF OWNER DATA, BEGIN FACTS DEVICE DATA
0 / END OF FACTS DEVICE DATA, BEGIN SWITCHED SHUNT DATA
     3,1,1,0,1.01000,0.99000,     2,  100.0,'            ',    0.00, 6,    4.00
0 / END OF SWITCHED SHUNT DATA, BEGIN GNE DATA
0 / END OF GNE DATA, BEGIN INDUCTION MACHINE DATA
0 / END OF INDUCTION MACHINE DATA
Q
